
Circuit: * spicenetlist

Doing analysis at TEMP = 0.000000 and TNOM = 27.000000


No. of Data Rows : 501
                                 * spicenetlist
                                 DC transfer characteristic  Thu Jan 11 16:49:19  2018
--------------------------------------------------------------------------------
Index   v-sweep         v(n_7)          v_v3#branch     v_v1#branch     
--------------------------------------------------------------------------------
0	0.000000e+000	1.525362e+000	-1.51069e-004	1.684868e-005	
1	1.800000e-004	1.522732e+000	-1.51068e-004	1.684074e-005	
2	3.600000e-004	1.520103e+000	-1.51067e-004	1.683281e-005	
3	5.400000e-004	1.517473e+000	-1.51066e-004	1.682487e-005	
4	7.200000e-004	1.514843e+000	-1.51064e-004	1.681694e-005	
5	9.000000e-004	1.512214e+000	-1.51063e-004	1.680900e-005	
6	1.080000e-003	1.509584e+000	-1.51062e-004	1.680106e-005	
7	1.260000e-003	1.506954e+000	-1.51061e-004	1.679313e-005	
8	1.440000e-003	1.504325e+000	-1.51060e-004	1.678519e-005	
9	1.620000e-003	1.501695e+000	-1.51059e-004	1.677726e-005	
10	1.800000e-003	1.499065e+000	-1.51058e-004	1.676932e-005	
11	1.980000e-003	1.496436e+000	-1.51057e-004	1.676139e-005	
12	2.160000e-003	1.493806e+000	-1.51056e-004	1.675345e-005	
13	2.340000e-003	1.491176e+000	-1.51055e-004	1.674551e-005	
14	2.520000e-003	1.488547e+000	-1.51054e-004	1.673758e-005	
15	2.700000e-003	1.485917e+000	-1.51053e-004	1.672964e-005	
16	2.880000e-003	1.483287e+000	-1.51052e-004	1.672171e-005	
17	3.060000e-003	1.480658e+000	-1.51051e-004	1.671377e-005	
18	3.240000e-003	1.478028e+000	-1.51050e-004	1.670584e-005	
19	3.420000e-003	1.475399e+000	-1.51049e-004	1.669790e-005	
20	3.600000e-003	1.472769e+000	-1.51048e-004	1.668996e-005	
21	3.780000e-003	1.470139e+000	-1.51047e-004	1.668203e-005	
22	3.960000e-003	1.467510e+000	-1.51046e-004	1.667409e-005	
23	4.140000e-003	1.464880e+000	-1.51045e-004	1.666616e-005	
24	4.320000e-003	1.462250e+000	-1.51044e-004	1.665822e-005	
25	4.500000e-003	1.459621e+000	-1.51043e-004	1.665029e-005	
26	4.680000e-003	1.456991e+000	-1.51042e-004	1.664235e-005	
27	4.860000e-003	1.454361e+000	-1.51041e-004	1.663441e-005	
28	5.040000e-003	1.451732e+000	-1.51040e-004	1.662648e-005	
29	5.220000e-003	1.449102e+000	-1.51039e-004	1.661854e-005	
30	5.400000e-003	1.446472e+000	-1.51038e-004	1.661061e-005	
31	5.580000e-003	1.443843e+000	-1.51037e-004	1.660267e-005	
32	5.760000e-003	1.441213e+000	-1.51036e-004	1.659474e-005	
33	5.940000e-003	1.438583e+000	-1.51035e-004	1.658680e-005	
34	6.120000e-003	1.435954e+000	-1.51034e-004	1.657886e-005	
35	6.300000e-003	1.433324e+000	-1.51033e-004	1.657093e-005	
36	6.480000e-003	1.430694e+000	-1.51032e-004	1.656299e-005	
37	6.660000e-003	1.428065e+000	-1.51031e-004	1.655506e-005	
38	6.840000e-003	1.425435e+000	-1.51030e-004	1.654712e-005	
39	7.020000e-003	1.422806e+000	-1.51029e-004	1.653919e-005	
40	7.200000e-003	1.420176e+000	-1.51028e-004	1.653125e-005	
41	7.380000e-003	1.417546e+000	-1.51027e-004	1.652331e-005	
42	7.560000e-003	1.414917e+000	-1.51026e-004	1.651538e-005	
43	7.740000e-003	1.412287e+000	-1.51025e-004	1.650744e-005	
44	7.920000e-003	1.409657e+000	-1.51024e-004	1.649951e-005	
45	8.100000e-003	1.407028e+000	-1.51023e-004	1.649157e-005	
46	8.280000e-003	1.404398e+000	-1.51022e-004	1.648364e-005	
47	8.460000e-003	1.401768e+000	-1.51021e-004	1.647570e-005	
48	8.640000e-003	1.399139e+000	-1.51020e-004	1.646776e-005	
49	8.820000e-003	1.396509e+000	-1.51019e-004	1.645983e-005	
50	9.000000e-003	1.393879e+000	-1.51018e-004	1.645189e-005	
51	9.180000e-003	1.391250e+000	-1.51017e-004	1.644396e-005	
52	9.360000e-003	1.388620e+000	-1.51016e-004	1.643602e-005	
53	9.540000e-003	1.385990e+000	-1.51015e-004	1.642809e-005	
54	9.720000e-003	1.383361e+000	-1.51014e-004	1.642015e-005	

Index   v-sweep         v(n_7)          v_v3#branch     v_v1#branch     
--------------------------------------------------------------------------------
55	9.900000e-003	1.380731e+000	-1.51013e-004	1.641221e-005	
56	1.008000e-002	1.378102e+000	-1.51012e-004	1.640428e-005	
57	1.026000e-002	1.375472e+000	-1.51011e-004	1.639634e-005	
58	1.044000e-002	1.372842e+000	-1.51010e-004	1.638841e-005	
59	1.062000e-002	1.370213e+000	-1.51009e-004	1.638047e-005	
60	1.080000e-002	1.367583e+000	-1.51008e-004	1.637254e-005	
61	1.098000e-002	1.364953e+000	-1.51007e-004	1.636460e-005	
62	1.116000e-002	1.362324e+000	-1.51006e-004	1.635666e-005	
63	1.134000e-002	1.359694e+000	-1.51005e-004	1.634873e-005	
64	1.152000e-002	1.357064e+000	-1.51004e-004	1.634079e-005	
65	1.170000e-002	1.354435e+000	-1.51003e-004	1.633286e-005	
66	1.188000e-002	1.351805e+000	-1.51002e-004	1.632492e-005	
67	1.206000e-002	1.349175e+000	-1.51001e-004	1.631699e-005	
68	1.224000e-002	1.346546e+000	-1.51000e-004	1.630905e-005	
69	1.242000e-002	1.343916e+000	-1.50999e-004	1.630111e-005	
70	1.260000e-002	1.341286e+000	-1.50998e-004	1.629318e-005	
71	1.278000e-002	1.338657e+000	-1.50997e-004	1.628524e-005	
72	1.296000e-002	1.336027e+000	-1.50996e-004	1.627731e-005	
73	1.314000e-002	1.333397e+000	-1.50995e-004	1.626937e-005	
74	1.332000e-002	1.330768e+000	-1.50994e-004	1.626144e-005	
75	1.350000e-002	1.328138e+000	-1.50993e-004	1.625350e-005	
76	1.368000e-002	1.325509e+000	-1.50992e-004	1.624556e-005	
77	1.386000e-002	1.322879e+000	-1.50991e-004	1.623763e-005	
78	1.404000e-002	1.320249e+000	-1.50990e-004	1.622969e-005	
79	1.422000e-002	1.317620e+000	-1.50989e-004	1.622176e-005	
80	1.440000e-002	1.314990e+000	-1.50988e-004	1.621382e-005	
81	1.458000e-002	1.312360e+000	-1.50987e-004	1.620589e-005	
82	1.476000e-002	1.309731e+000	-1.50986e-004	1.619795e-005	
83	1.494000e-002	1.307101e+000	-1.50985e-004	1.619001e-005	
84	1.512000e-002	1.304471e+000	-1.50984e-004	1.618208e-005	
85	1.530000e-002	1.301842e+000	-1.50983e-004	1.617414e-005	
86	1.548000e-002	1.299212e+000	-1.50982e-004	1.616621e-005	
87	1.566000e-002	1.296582e+000	-1.50981e-004	1.615827e-005	
88	1.584000e-002	1.293953e+000	-1.50980e-004	1.615034e-005	
89	1.602000e-002	1.291323e+000	-1.50979e-004	1.614240e-005	
90	1.620000e-002	1.288693e+000	-1.50978e-004	1.613446e-005	
91	1.638000e-002	1.286064e+000	-1.50977e-004	1.612653e-005	
92	1.656000e-002	1.283434e+000	-1.50976e-004	1.611859e-005	
93	1.674000e-002	1.280804e+000	-1.50975e-004	1.611066e-005	
94	1.692000e-002	1.278175e+000	-1.50974e-004	1.610272e-005	
95	1.710000e-002	1.275545e+000	-1.50973e-004	1.609479e-005	
96	1.728000e-002	1.272916e+000	-1.50971e-004	1.608685e-005	
97	1.746000e-002	1.270286e+000	-1.50970e-004	1.607891e-005	
98	1.764000e-002	1.267656e+000	-1.50969e-004	1.607098e-005	
99	1.782000e-002	1.265027e+000	-1.50968e-004	1.606304e-005	
100	1.800000e-002	1.262397e+000	-1.50967e-004	1.605511e-005	
101	1.818000e-002	1.259767e+000	-1.50966e-004	1.604717e-005	
102	1.836000e-002	1.257138e+000	-1.50965e-004	1.603923e-005	
103	1.854000e-002	1.254508e+000	-1.50964e-004	1.603130e-005	
104	1.872000e-002	1.251878e+000	-1.50963e-004	1.602336e-005	
105	1.890000e-002	1.249249e+000	-1.50962e-004	1.601543e-005	
106	1.908000e-002	1.246619e+000	-1.50961e-004	1.600749e-005	
107	1.926000e-002	1.243989e+000	-1.50960e-004	1.599956e-005	
108	1.944000e-002	1.241360e+000	-1.50959e-004	1.599162e-005	
109	1.962000e-002	1.238730e+000	-1.50958e-004	1.598368e-005	
110	1.980000e-002	1.236100e+000	-1.50957e-004	1.597575e-005	
111	1.998000e-002	1.233471e+000	-1.50956e-004	1.596781e-005	
112	2.016000e-002	1.230841e+000	-1.50955e-004	1.595988e-005	

Index   v-sweep         v(n_7)          v_v3#branch     v_v1#branch     
--------------------------------------------------------------------------------
113	2.034000e-002	1.228212e+000	-1.50954e-004	1.595194e-005	
114	2.052000e-002	1.225582e+000	-1.50953e-004	1.594401e-005	
115	2.070000e-002	1.222952e+000	-1.50952e-004	1.593607e-005	
116	2.088000e-002	1.220323e+000	-1.50951e-004	1.592813e-005	
117	2.106000e-002	1.217693e+000	-1.50950e-004	1.592020e-005	
118	2.124000e-002	1.215063e+000	-1.50949e-004	1.591226e-005	
119	2.142000e-002	1.212434e+000	-1.50948e-004	1.590433e-005	
120	2.160000e-002	1.209804e+000	-1.50947e-004	1.589639e-005	
121	2.178000e-002	1.207174e+000	-1.50946e-004	1.588846e-005	
122	2.196000e-002	1.204545e+000	-1.50945e-004	1.588052e-005	
123	2.214000e-002	1.201915e+000	-1.50944e-004	1.587258e-005	
124	2.232000e-002	1.199285e+000	-1.50943e-004	1.586465e-005	
125	2.250000e-002	1.196656e+000	-1.50942e-004	1.585671e-005	
126	2.268000e-002	1.194026e+000	-1.50941e-004	1.584878e-005	
127	2.286000e-002	1.191396e+000	-1.50940e-004	1.584084e-005	
128	2.304000e-002	1.188767e+000	-1.50939e-004	1.583291e-005	
129	2.322000e-002	1.186137e+000	-1.50938e-004	1.582497e-005	
130	2.340000e-002	1.183507e+000	-1.50937e-004	1.581703e-005	
131	2.358000e-002	1.180878e+000	-1.50936e-004	1.580910e-005	
132	2.376000e-002	1.178248e+000	-1.50935e-004	1.580116e-005	
133	2.394000e-002	1.175619e+000	-1.50934e-004	1.579323e-005	
134	2.412000e-002	1.172989e+000	-1.50933e-004	1.578529e-005	
135	2.430000e-002	1.170359e+000	-1.50932e-004	1.577736e-005	
136	2.448000e-002	1.167730e+000	-1.50931e-004	1.576942e-005	
137	2.466000e-002	1.165100e+000	-1.50930e-004	1.576148e-005	
138	2.484000e-002	1.162470e+000	-1.50929e-004	1.575355e-005	
139	2.502000e-002	1.159841e+000	-1.50928e-004	1.574561e-005	
140	2.520000e-002	1.157211e+000	-1.50927e-004	1.573768e-005	
141	2.538000e-002	1.154581e+000	-1.50926e-004	1.572974e-005	
142	2.556000e-002	1.151952e+000	-1.50925e-004	1.572181e-005	
143	2.574000e-002	1.149322e+000	-1.50924e-004	1.571387e-005	
144	2.592000e-002	1.146692e+000	-1.50923e-004	1.570593e-005	
145	2.610000e-002	1.144063e+000	-1.50922e-004	1.569800e-005	
146	2.628000e-002	1.141433e+000	-1.50921e-004	1.569006e-005	
147	2.646000e-002	1.138803e+000	-1.50920e-004	1.568213e-005	
148	2.664000e-002	1.136174e+000	-1.50919e-004	1.567419e-005	
149	2.682000e-002	1.133544e+000	-1.50918e-004	1.566626e-005	
150	2.700000e-002	1.130914e+000	-1.50917e-004	1.565832e-005	
151	2.718000e-002	1.128285e+000	-1.50916e-004	1.565038e-005	
152	2.736000e-002	1.125655e+000	-1.50915e-004	1.564245e-005	
153	2.754000e-002	1.123026e+000	-1.50914e-004	1.563451e-005	
154	2.772000e-002	1.120396e+000	-1.50913e-004	1.562658e-005	
155	2.790000e-002	1.117766e+000	-1.50912e-004	1.561864e-005	
156	2.808000e-002	1.115137e+000	-1.50911e-004	1.561071e-005	
157	2.826000e-002	1.112507e+000	-1.50910e-004	1.560277e-005	
158	2.844000e-002	1.109877e+000	-1.50909e-004	1.559483e-005	
159	2.862000e-002	1.107248e+000	-1.50908e-004	1.558690e-005	
160	2.880000e-002	1.104618e+000	-1.50907e-004	1.557896e-005	
161	2.898000e-002	1.101988e+000	-1.50906e-004	1.557103e-005	
162	2.916000e-002	1.099359e+000	-1.50905e-004	1.556309e-005	
163	2.934000e-002	1.096729e+000	-1.50904e-004	1.555516e-005	
164	2.952000e-002	1.094099e+000	-1.50903e-004	1.554722e-005	
165	2.970000e-002	1.091470e+000	-1.50902e-004	1.553928e-005	
166	2.988000e-002	1.088840e+000	-1.50901e-004	1.553135e-005	
167	3.006000e-002	1.086210e+000	-1.50900e-004	1.552341e-005	
168	3.024000e-002	1.083581e+000	-1.50899e-004	1.551548e-005	
169	3.042000e-002	1.080951e+000	-1.50898e-004	1.550754e-005	
170	3.060000e-002	1.078321e+000	-1.50897e-004	1.549961e-005	

Index   v-sweep         v(n_7)          v_v3#branch     v_v1#branch     
--------------------------------------------------------------------------------
171	3.078000e-002	1.075692e+000	-1.50896e-004	1.549167e-005	
172	3.096000e-002	1.073062e+000	-1.50895e-004	1.548373e-005	
173	3.114000e-002	1.070433e+000	-1.50894e-004	1.547580e-005	
174	3.132000e-002	1.067803e+000	-1.50893e-004	1.546786e-005	
175	3.150000e-002	1.065173e+000	-1.50892e-004	1.545993e-005	
176	3.168000e-002	1.062544e+000	-1.50891e-004	1.545199e-005	
177	3.186000e-002	1.059914e+000	-1.50890e-004	1.544406e-005	
178	3.204000e-002	1.057284e+000	-1.50889e-004	1.543612e-005	
179	3.222000e-002	1.054655e+000	-1.50888e-004	1.542818e-005	
180	3.240000e-002	1.052025e+000	-1.50887e-004	1.542025e-005	
181	3.258000e-002	1.049395e+000	-1.50886e-004	1.541231e-005	
182	3.276000e-002	1.046766e+000	-1.50885e-004	1.540438e-005	
183	3.294000e-002	1.044136e+000	-1.50884e-004	1.539644e-005	
184	3.312000e-002	1.041506e+000	-1.50883e-004	1.538851e-005	
185	3.330000e-002	1.038877e+000	-1.50882e-004	1.538057e-005	
186	3.348000e-002	1.036247e+000	-1.50881e-004	1.537263e-005	
187	3.366000e-002	1.033617e+000	-1.50880e-004	1.536470e-005	
188	3.384000e-002	1.030988e+000	-1.50878e-004	1.535676e-005	
189	3.402000e-002	1.028358e+000	-1.50877e-004	1.534883e-005	
190	3.420000e-002	1.025729e+000	-1.50876e-004	1.534089e-005	
191	3.438000e-002	1.023099e+000	-1.50875e-004	1.533296e-005	
192	3.456000e-002	1.020469e+000	-1.50874e-004	1.532502e-005	
193	3.474000e-002	1.017840e+000	-1.50873e-004	1.531708e-005	
194	3.492000e-002	1.015210e+000	-1.50872e-004	1.530915e-005	
195	3.510000e-002	1.012580e+000	-1.50871e-004	1.530121e-005	
196	3.528000e-002	1.009951e+000	-1.50870e-004	1.529328e-005	
197	3.546000e-002	1.007321e+000	-1.50869e-004	1.528534e-005	
198	3.564000e-002	1.004691e+000	-1.50868e-004	1.527741e-005	
199	3.582000e-002	1.002062e+000	-1.50867e-004	1.526947e-005	
200	3.600000e-002	9.994320e-001	-1.50866e-004	1.526153e-005	
201	3.618000e-002	9.968024e-001	-1.50865e-004	1.525360e-005	
202	3.636000e-002	9.941727e-001	-1.50864e-004	1.524566e-005	
203	3.654000e-002	9.915431e-001	-1.50863e-004	1.523773e-005	
204	3.672000e-002	9.889134e-001	-1.50862e-004	1.522979e-005	
205	3.690000e-002	9.862838e-001	-1.50861e-004	1.522185e-005	
206	3.708000e-002	9.836541e-001	-1.50860e-004	1.521392e-005	
207	3.726000e-002	9.810245e-001	-1.50859e-004	1.520598e-005	
208	3.744000e-002	9.783948e-001	-1.50858e-004	1.519805e-005	
209	3.762000e-002	9.757652e-001	-1.50857e-004	1.519011e-005	
210	3.780000e-002	9.731355e-001	-1.50856e-004	1.518218e-005	
211	3.798000e-002	9.705059e-001	-1.50855e-004	1.517424e-005	
212	3.816000e-002	9.678762e-001	-1.50854e-004	1.516630e-005	
213	3.834000e-002	9.652466e-001	-1.50853e-004	1.515837e-005	
214	3.852000e-002	9.626169e-001	-1.50852e-004	1.515043e-005	
215	3.870000e-002	9.599873e-001	-1.50851e-004	1.514250e-005	
216	3.888000e-002	9.573576e-001	-1.50850e-004	1.513456e-005	
217	3.906000e-002	9.547280e-001	-1.50849e-004	1.512663e-005	
218	3.924000e-002	9.520983e-001	-1.50848e-004	1.511869e-005	
219	3.942000e-002	9.494687e-001	-1.50847e-004	1.511075e-005	
220	3.960000e-002	9.468390e-001	-1.50846e-004	1.510282e-005	
221	3.978000e-002	9.442094e-001	-1.50845e-004	1.509488e-005	
222	3.996000e-002	9.415797e-001	-1.50844e-004	1.508695e-005	
223	4.014000e-002	9.389501e-001	-1.50843e-004	1.507901e-005	
224	4.032000e-002	9.363204e-001	-1.50842e-004	1.507108e-005	
225	4.050000e-002	9.336908e-001	-1.50841e-004	1.506314e-005	
226	4.068000e-002	9.310611e-001	-1.50840e-004	1.505520e-005	
227	4.086000e-002	9.284315e-001	-1.50839e-004	1.504727e-005	
228	4.104000e-002	9.258018e-001	-1.50838e-004	1.503933e-005	

Index   v-sweep         v(n_7)          v_v3#branch     v_v1#branch     
--------------------------------------------------------------------------------
229	4.122000e-002	9.231722e-001	-1.50837e-004	1.503140e-005	
230	4.140000e-002	9.205425e-001	-1.50836e-004	1.502346e-005	
231	4.158000e-002	9.179129e-001	-1.50835e-004	1.501553e-005	
232	4.176000e-002	9.152832e-001	-1.50834e-004	1.500759e-005	
233	4.194000e-002	9.126536e-001	-1.50833e-004	1.499965e-005	
234	4.212000e-002	9.100239e-001	-1.50832e-004	1.499172e-005	
235	4.230000e-002	9.073943e-001	-1.50831e-004	1.498378e-005	
236	4.248000e-002	9.047646e-001	-1.50830e-004	1.497585e-005	
237	4.266000e-002	9.021350e-001	-1.50829e-004	1.496791e-005	
238	4.284000e-002	8.995053e-001	-1.50828e-004	1.495998e-005	
239	4.302000e-002	8.968757e-001	-1.50827e-004	1.495204e-005	
240	4.320000e-002	8.942460e-001	-1.50826e-004	1.494410e-005	
241	4.338000e-002	8.916164e-001	-1.50825e-004	1.493617e-005	
242	4.356000e-002	8.889867e-001	-1.50824e-004	1.492823e-005	
243	4.374000e-002	8.863571e-001	-1.50823e-004	1.492030e-005	
244	4.392000e-002	8.837274e-001	-1.50822e-004	1.491236e-005	
245	4.410000e-002	8.810978e-001	-1.50821e-004	1.490443e-005	
246	4.428000e-002	8.784681e-001	-1.50820e-004	1.489649e-005	
247	4.446000e-002	8.758385e-001	-1.50819e-004	1.488855e-005	
248	4.464000e-002	8.732088e-001	-1.50818e-004	1.488062e-005	
249	4.482000e-002	8.705792e-001	-1.50817e-004	1.487268e-005	
250	4.500000e-002	8.679495e-001	-1.50816e-004	1.486475e-005	
251	4.518000e-002	8.653199e-001	-1.50815e-004	1.485681e-005	
252	4.536000e-002	8.626902e-001	-1.50814e-004	1.484888e-005	
253	4.554000e-002	8.600606e-001	-1.50813e-004	1.484094e-005	
254	4.572000e-002	8.574310e-001	-1.50812e-004	1.483300e-005	
255	4.590000e-002	8.548013e-001	-1.50811e-004	1.482507e-005	
256	4.608000e-002	8.521717e-001	-1.50810e-004	1.481713e-005	
257	4.626000e-002	8.495420e-001	-1.50809e-004	1.480920e-005	
258	4.644000e-002	8.469124e-001	-1.50808e-004	1.480126e-005	
259	4.662000e-002	8.442827e-001	-1.50807e-004	1.479333e-005	
260	4.680000e-002	8.416531e-001	-1.50806e-004	1.478539e-005	
261	4.698000e-002	8.390234e-001	-1.50805e-004	1.477745e-005	
262	4.716000e-002	8.363938e-001	-1.50804e-004	1.476952e-005	
263	4.734000e-002	8.337641e-001	-1.50803e-004	1.476158e-005	
264	4.752000e-002	8.311345e-001	-1.50802e-004	1.475365e-005	
265	4.770000e-002	8.285048e-001	-1.50801e-004	1.474571e-005	
266	4.788000e-002	8.258752e-001	-1.50800e-004	1.473778e-005	
267	4.806000e-002	8.232455e-001	-1.50799e-004	1.472984e-005	
268	4.824000e-002	8.206159e-001	-1.50798e-004	1.472190e-005	
269	4.842000e-002	8.179862e-001	-1.50797e-004	1.471397e-005	
270	4.860000e-002	8.153566e-001	-1.50796e-004	1.470603e-005	
271	4.878000e-002	8.127269e-001	-1.50795e-004	1.469810e-005	
272	4.896000e-002	8.100973e-001	-1.50794e-004	1.469016e-005	
273	4.914000e-002	8.074676e-001	-1.50793e-004	1.468223e-005	
274	4.932000e-002	8.048380e-001	-1.50792e-004	1.467429e-005	
275	4.950000e-002	8.022083e-001	-1.50791e-004	1.466635e-005	
276	4.968000e-002	7.995787e-001	-1.50790e-004	1.465842e-005	
277	4.986000e-002	7.969490e-001	-1.50789e-004	1.465048e-005	
278	5.004000e-002	7.943194e-001	-1.50788e-004	1.464255e-005	
279	5.022000e-002	7.916897e-001	-1.50786e-004	1.463461e-005	
280	5.040000e-002	7.890601e-001	-1.50785e-004	1.462668e-005	
281	5.058000e-002	7.864304e-001	-1.50784e-004	1.461874e-005	
282	5.076000e-002	7.838008e-001	-1.50783e-004	1.461080e-005	
283	5.094000e-002	7.811711e-001	-1.50782e-004	1.460287e-005	
284	5.112000e-002	7.785415e-001	-1.50781e-004	1.459493e-005	
285	5.130000e-002	7.759118e-001	-1.50780e-004	1.458700e-005	
286	5.148000e-002	7.732822e-001	-1.50779e-004	1.457906e-005	

Index   v-sweep         v(n_7)          v_v3#branch     v_v1#branch     
--------------------------------------------------------------------------------
287	5.166000e-002	7.706525e-001	-1.50778e-004	1.457113e-005	
288	5.184000e-002	7.680229e-001	-1.50777e-004	1.456319e-005	
289	5.202000e-002	7.653932e-001	-1.50776e-004	1.455525e-005	
290	5.220000e-002	7.627636e-001	-1.50775e-004	1.454732e-005	
291	5.238000e-002	7.601339e-001	-1.50774e-004	1.453938e-005	
292	5.256000e-002	7.575043e-001	-1.50773e-004	1.453145e-005	
293	5.274000e-002	7.548746e-001	-1.50772e-004	1.452351e-005	
294	5.292000e-002	7.522450e-001	-1.50771e-004	1.451558e-005	
295	5.310000e-002	7.496153e-001	-1.50770e-004	1.450764e-005	
296	5.328000e-002	7.469857e-001	-1.50769e-004	1.449970e-005	
297	5.346000e-002	7.443560e-001	-1.50768e-004	1.449177e-005	
298	5.364000e-002	7.417264e-001	-1.50767e-004	1.448383e-005	
299	5.382000e-002	7.390967e-001	-1.50766e-004	1.447590e-005	
300	5.400000e-002	7.364671e-001	-1.50765e-004	1.446796e-005	
301	5.418000e-002	7.338374e-001	-1.50764e-004	1.446003e-005	
302	5.436000e-002	7.312078e-001	-1.50763e-004	1.445209e-005	
303	5.454000e-002	7.285781e-001	-1.50762e-004	1.444415e-005	
304	5.472000e-002	7.259485e-001	-1.50761e-004	1.443622e-005	
305	5.490000e-002	7.233188e-001	-1.50760e-004	1.442828e-005	
306	5.508000e-002	7.206892e-001	-1.50759e-004	1.442035e-005	
307	5.526000e-002	7.180595e-001	-1.50758e-004	1.441241e-005	
308	5.544000e-002	7.154299e-001	-1.50757e-004	1.440447e-005	
309	5.562000e-002	7.128002e-001	-1.50756e-004	1.439654e-005	
310	5.580000e-002	7.101706e-001	-1.50755e-004	1.438860e-005	
311	5.598000e-002	7.075409e-001	-1.50754e-004	1.438067e-005	
312	5.616000e-002	7.049113e-001	-1.50753e-004	1.437273e-005	
313	5.634000e-002	7.022816e-001	-1.50752e-004	1.436480e-005	
314	5.652000e-002	6.996520e-001	-1.50751e-004	1.435686e-005	
315	5.670000e-002	6.970223e-001	-1.50750e-004	1.434892e-005	
316	5.688000e-002	6.943927e-001	-1.50749e-004	1.434099e-005	
317	5.706000e-002	6.917630e-001	-1.50748e-004	1.433305e-005	
318	5.724000e-002	6.891334e-001	-1.50747e-004	1.432512e-005	
319	5.742000e-002	6.865037e-001	-1.50746e-004	1.431718e-005	
320	5.760000e-002	6.838741e-001	-1.50745e-004	1.430925e-005	
321	5.778000e-002	6.812444e-001	-1.50744e-004	1.430131e-005	
322	5.796000e-002	6.786148e-001	-1.50743e-004	1.429337e-005	
323	5.814000e-002	6.759851e-001	-1.50742e-004	1.428544e-005	
324	5.832000e-002	6.733555e-001	-1.50741e-004	1.427750e-005	
325	5.850000e-002	6.707259e-001	-1.50740e-004	1.426957e-005	
326	5.868000e-002	6.680962e-001	-1.50739e-004	1.426163e-005	
327	5.886000e-002	6.654666e-001	-1.50738e-004	1.425370e-005	
328	5.904000e-002	6.628369e-001	-1.50737e-004	1.424576e-005	
329	5.922000e-002	6.602073e-001	-1.50736e-004	1.423782e-005	
330	5.940000e-002	6.575776e-001	-1.50735e-004	1.422989e-005	
331	5.958000e-002	6.549480e-001	-1.50734e-004	1.422195e-005	
332	5.976000e-002	6.523183e-001	-1.50733e-004	1.421402e-005	
333	5.994000e-002	6.496887e-001	-1.50732e-004	1.420608e-005	
334	6.012000e-002	6.470590e-001	-1.50731e-004	1.419815e-005	
335	6.030000e-002	6.444294e-001	-1.50730e-004	1.419021e-005	
336	6.048000e-002	6.417997e-001	-1.50729e-004	1.418227e-005	
337	6.066000e-002	6.391701e-001	-1.50728e-004	1.417434e-005	
338	6.084000e-002	6.365404e-001	-1.50727e-004	1.416640e-005	
339	6.102000e-002	6.339108e-001	-1.50726e-004	1.415847e-005	
340	6.120000e-002	6.312811e-001	-1.50725e-004	1.415053e-005	
341	6.138000e-002	6.286515e-001	-1.50724e-004	1.414260e-005	
342	6.156000e-002	6.260218e-001	-1.50723e-004	1.413466e-005	
343	6.174000e-002	6.233922e-001	-1.50722e-004	1.412672e-005	
344	6.192000e-002	6.207625e-001	-1.50721e-004	1.411879e-005	

Index   v-sweep         v(n_7)          v_v3#branch     v_v1#branch     
--------------------------------------------------------------------------------
345	6.210000e-002	6.181329e-001	-1.50720e-004	1.411085e-005	
346	6.228000e-002	6.155032e-001	-1.50719e-004	1.410292e-005	
347	6.246000e-002	6.128736e-001	-1.50718e-004	1.409498e-005	
348	6.264000e-002	6.102439e-001	-1.50717e-004	1.408705e-005	
349	6.282000e-002	6.076143e-001	-1.50716e-004	1.407911e-005	
350	6.300000e-002	6.049846e-001	-1.50715e-004	1.407117e-005	
351	6.318000e-002	6.023550e-001	-1.50714e-004	1.406324e-005	
352	6.336000e-002	5.997253e-001	-1.50713e-004	1.405530e-005	
353	6.354000e-002	5.970957e-001	-1.50712e-004	1.404737e-005	
354	6.372000e-002	5.944660e-001	-1.50711e-004	1.403943e-005	
355	6.390000e-002	5.918364e-001	-1.50710e-004	1.403150e-005	
356	6.408000e-002	5.892067e-001	-1.50709e-004	1.402356e-005	
357	6.426000e-002	5.865771e-001	-1.50708e-004	1.401562e-005	
358	6.444000e-002	5.839474e-001	-1.50707e-004	1.400769e-005	
359	6.462000e-002	5.813178e-001	-1.50706e-004	1.399975e-005	
360	6.480000e-002	5.786881e-001	-1.50705e-004	1.399182e-005	
361	6.498000e-002	5.760585e-001	-1.50704e-004	1.398388e-005	
362	6.516000e-002	5.734288e-001	-1.50703e-004	1.397595e-005	
363	6.534000e-002	5.707992e-001	-1.50702e-004	1.396801e-005	
364	6.552000e-002	5.681695e-001	-1.50701e-004	1.396007e-005	
365	6.570000e-002	5.655399e-001	-1.50700e-004	1.395214e-005	
366	6.588000e-002	5.629102e-001	-1.50699e-004	1.394420e-005	
367	6.606000e-002	5.602806e-001	-1.50698e-004	1.393627e-005	
368	6.624000e-002	5.576509e-001	-1.50697e-004	1.392833e-005	
369	6.642000e-002	5.550213e-001	-1.50696e-004	1.392040e-005	
370	6.660000e-002	5.523916e-001	-1.50695e-004	1.391246e-005	
371	6.678000e-002	5.497620e-001	-1.50693e-004	1.390452e-005	
372	6.696000e-002	5.471323e-001	-1.50692e-004	1.389659e-005	
373	6.714000e-002	5.445027e-001	-1.50691e-004	1.388865e-005	
374	6.732000e-002	5.418730e-001	-1.50690e-004	1.388072e-005	
375	6.750000e-002	5.392434e-001	-1.50689e-004	1.387278e-005	
376	6.768000e-002	5.366137e-001	-1.50688e-004	1.386485e-005	
377	6.786000e-002	5.339841e-001	-1.50687e-004	1.385691e-005	
378	6.804000e-002	5.313544e-001	-1.50686e-004	1.384897e-005	
379	6.822000e-002	5.287248e-001	-1.50685e-004	1.384104e-005	
380	6.840000e-002	5.260951e-001	-1.50684e-004	1.383310e-005	
381	6.858000e-002	5.234655e-001	-1.50683e-004	1.382517e-005	
382	6.876000e-002	5.208358e-001	-1.50682e-004	1.381723e-005	
383	6.894000e-002	5.182062e-001	-1.50681e-004	1.380930e-005	
384	6.912000e-002	5.155765e-001	-1.50680e-004	1.380136e-005	
385	6.930000e-002	5.129469e-001	-1.50679e-004	1.379342e-005	
386	6.948000e-002	5.103172e-001	-1.50678e-004	1.378549e-005	
387	6.966000e-002	5.076876e-001	-1.50677e-004	1.377755e-005	
388	6.984000e-002	5.050579e-001	-1.50676e-004	1.376962e-005	
389	7.002000e-002	5.024283e-001	-1.50675e-004	1.376168e-005	
390	7.020000e-002	4.997986e-001	-1.50674e-004	1.375375e-005	
391	7.038000e-002	4.971690e-001	-1.50673e-004	1.374581e-005	
392	7.056000e-002	4.945393e-001	-1.50672e-004	1.373787e-005	
393	7.074000e-002	4.919097e-001	-1.50671e-004	1.372994e-005	
394	7.092000e-002	4.892801e-001	-1.50670e-004	1.372200e-005	
395	7.110000e-002	4.866504e-001	-1.50669e-004	1.371407e-005	
396	7.128000e-002	4.840208e-001	-1.50668e-004	1.370613e-005	
397	7.146000e-002	4.813911e-001	-1.50667e-004	1.369820e-005	
398	7.164000e-002	4.787615e-001	-1.50666e-004	1.369026e-005	
399	7.182000e-002	4.761318e-001	-1.50665e-004	1.368232e-005	
400	7.200000e-002	4.735022e-001	-1.50664e-004	1.367439e-005	
401	7.218000e-002	4.708725e-001	-1.50663e-004	1.366645e-005	
402	7.236000e-002	4.682429e-001	-1.50662e-004	1.365852e-005	

Index   v-sweep         v(n_7)          v_v3#branch     v_v1#branch     
--------------------------------------------------------------------------------
403	7.254000e-002	4.656132e-001	-1.50661e-004	1.365058e-005	
404	7.272000e-002	4.629836e-001	-1.50660e-004	1.364265e-005	
405	7.290000e-002	4.603539e-001	-1.50659e-004	1.363471e-005	
406	7.308000e-002	4.577243e-001	-1.50658e-004	1.362677e-005	
407	7.326000e-002	4.550946e-001	-1.50657e-004	1.361884e-005	
408	7.344000e-002	4.524650e-001	-1.50656e-004	1.361090e-005	
409	7.362000e-002	4.498353e-001	-1.50655e-004	1.360297e-005	
410	7.380000e-002	4.472057e-001	-1.50654e-004	1.359503e-005	
411	7.398000e-002	4.445760e-001	-1.50653e-004	1.358709e-005	
412	7.416000e-002	4.419464e-001	-1.50652e-004	1.357916e-005	
413	7.434000e-002	4.393167e-001	-1.50651e-004	1.357122e-005	
414	7.452000e-002	4.366871e-001	-1.50650e-004	1.356329e-005	
415	7.470000e-002	4.340574e-001	-1.50649e-004	1.355535e-005	
416	7.488000e-002	4.314278e-001	-1.50648e-004	1.354742e-005	
417	7.506000e-002	4.287981e-001	-1.50647e-004	1.353948e-005	
418	7.524000e-002	4.261685e-001	-1.50646e-004	1.353154e-005	
419	7.542000e-002	4.235388e-001	-1.50645e-004	1.352361e-005	
420	7.560000e-002	4.209092e-001	-1.50644e-004	1.351567e-005	
421	7.578000e-002	4.182795e-001	-1.50643e-004	1.350774e-005	
422	7.596000e-002	4.156499e-001	-1.50642e-004	1.349980e-005	
423	7.614000e-002	4.130202e-001	-1.50641e-004	1.349187e-005	
424	7.632000e-002	4.103906e-001	-1.50640e-004	1.348393e-005	
425	7.650000e-002	4.077609e-001	-1.50639e-004	1.347599e-005	
426	7.668000e-002	4.051313e-001	-1.50638e-004	1.346806e-005	
427	7.686000e-002	4.025016e-001	-1.50637e-004	1.346012e-005	
428	7.704000e-002	3.998720e-001	-1.50636e-004	1.345219e-005	
429	7.722000e-002	3.972423e-001	-1.50635e-004	1.344425e-005	
430	7.740000e-002	3.946127e-001	-1.50634e-004	1.343632e-005	
431	7.758000e-002	3.919830e-001	-1.50633e-004	1.342838e-005	
432	7.776000e-002	3.893534e-001	-1.50632e-004	1.342044e-005	
433	7.794000e-002	3.867237e-001	-1.50631e-004	1.341251e-005	
434	7.812000e-002	3.840941e-001	-1.50630e-004	1.340457e-005	
435	7.830000e-002	3.814644e-001	-1.50629e-004	1.339664e-005	
436	7.848000e-002	3.788348e-001	-1.50628e-004	1.338870e-005	
437	7.866000e-002	3.762051e-001	-1.50627e-004	1.338077e-005	
438	7.884000e-002	3.735755e-001	-1.50626e-004	1.337283e-005	
439	7.902000e-002	3.709458e-001	-1.50625e-004	1.336489e-005	
440	7.920000e-002	3.683162e-001	-1.50624e-004	1.335696e-005	
441	7.938000e-002	3.656865e-001	-1.50623e-004	1.334902e-005	
442	7.956000e-002	3.630569e-001	-1.50622e-004	1.334109e-005	
443	7.974000e-002	3.604272e-001	-1.50621e-004	1.333315e-005	
444	7.992000e-002	3.577976e-001	-1.50620e-004	1.332522e-005	
445	8.010000e-002	3.551679e-001	-1.50619e-004	1.331728e-005	
446	8.028000e-002	3.525383e-001	-1.50618e-004	1.330934e-005	
447	8.046000e-002	3.499086e-001	-1.50617e-004	1.330141e-005	
448	8.064000e-002	3.472790e-001	-1.50616e-004	1.329347e-005	
449	8.082000e-002	3.446493e-001	-1.50615e-004	1.328554e-005	
450	8.100000e-002	3.420197e-001	-1.50614e-004	1.327760e-005	
451	8.118000e-002	3.393900e-001	-1.50613e-004	1.326967e-005	
452	8.136000e-002	3.367604e-001	-1.50612e-004	1.326173e-005	
453	8.154000e-002	3.341307e-001	-1.50611e-004	1.325379e-005	
454	8.172000e-002	3.315011e-001	-1.50610e-004	1.324586e-005	
455	8.190000e-002	3.288714e-001	-1.50609e-004	1.323792e-005	
456	8.208000e-002	3.262418e-001	-1.50608e-004	1.322999e-005	
457	8.226000e-002	3.236121e-001	-1.50607e-004	1.322205e-005	
458	8.244000e-002	3.209825e-001	-1.50606e-004	1.321412e-005	
459	8.262000e-002	3.183528e-001	-1.50605e-004	1.320618e-005	
460	8.280000e-002	3.157232e-001	-1.50604e-004	1.319824e-005	

Index   v-sweep         v(n_7)          v_v3#branch     v_v1#branch     
--------------------------------------------------------------------------------
461	8.298000e-002	3.130935e-001	-1.50603e-004	1.319031e-005	
462	8.316000e-002	3.104639e-001	-1.50601e-004	1.318237e-005	
463	8.334000e-002	3.078342e-001	-1.50600e-004	1.317444e-005	
464	8.352000e-002	3.052046e-001	-1.50599e-004	1.316650e-005	
465	8.370000e-002	3.025750e-001	-1.50598e-004	1.315857e-005	
466	8.388000e-002	2.999453e-001	-1.50597e-004	1.315063e-005	
467	8.406000e-002	2.973157e-001	-1.50596e-004	1.314269e-005	
468	8.424000e-002	2.946860e-001	-1.50595e-004	1.313476e-005	
469	8.442000e-002	2.920564e-001	-1.50594e-004	1.312682e-005	
470	8.460000e-002	2.894267e-001	-1.50593e-004	1.311889e-005	
471	8.478000e-002	2.867971e-001	-1.50592e-004	1.311095e-005	
472	8.496000e-002	2.841674e-001	-1.50591e-004	1.310302e-005	
473	8.514000e-002	2.815378e-001	-1.50590e-004	1.309508e-005	
474	8.532000e-002	2.789081e-001	-1.50589e-004	1.308714e-005	
475	8.550000e-002	2.762785e-001	-1.50588e-004	1.307921e-005	
476	8.568000e-002	2.736488e-001	-1.50587e-004	1.307127e-005	
477	8.586000e-002	2.710192e-001	-1.50586e-004	1.306334e-005	
478	8.604000e-002	2.683895e-001	-1.50585e-004	1.305540e-005	
479	8.622000e-002	2.657599e-001	-1.50584e-004	1.304747e-005	
480	8.640000e-002	2.631302e-001	-1.50583e-004	1.303953e-005	
481	8.658000e-002	2.605006e-001	-1.50582e-004	1.303159e-005	
482	8.676000e-002	2.578709e-001	-1.50581e-004	1.302366e-005	
483	8.694000e-002	2.552413e-001	-1.50580e-004	1.301572e-005	
484	8.712000e-002	2.526116e-001	-1.50579e-004	1.300779e-005	
485	8.730000e-002	2.499820e-001	-1.50578e-004	1.299985e-005	
486	8.748000e-002	2.473523e-001	-1.50577e-004	1.299192e-005	
487	8.766000e-002	2.447227e-001	-1.50576e-004	1.298398e-005	
488	8.784000e-002	2.420930e-001	-1.50575e-004	1.297604e-005	
489	8.802000e-002	2.394634e-001	-1.50574e-004	1.296811e-005	
490	8.820000e-002	2.368337e-001	-1.50573e-004	1.296017e-005	
491	8.838000e-002	2.342041e-001	-1.50572e-004	1.295224e-005	
492	8.856000e-002	2.315744e-001	-1.50571e-004	1.294430e-005	
493	8.874000e-002	2.289448e-001	-1.50570e-004	1.293637e-005	
494	8.892000e-002	2.263151e-001	-1.50569e-004	1.292843e-005	
495	8.910000e-002	2.236855e-001	-1.50568e-004	1.292049e-005	
496	8.928000e-002	2.210558e-001	-1.50567e-004	1.291256e-005	
497	8.946000e-002	2.184262e-001	-1.50566e-004	1.290462e-005	
498	8.964000e-002	2.157965e-001	-1.50565e-004	1.289669e-005	
499	8.982000e-002	2.131669e-001	-1.50564e-004	1.288875e-005	
500	9.000000e-002	2.105372e-001	-1.50563e-004	1.288082e-005	

                                 * spicenetlist
                                 DC transfer characteristic  Thu Jan 11 16:49:19  2018
--------------------------------------------------------------------------------
Index   v-sweep         v_v2#branch     
--------------------------------------------------------------------------------
0	0.000000e+000	0.000000e+000	
1	1.800000e-004	0.000000e+000	
2	3.600000e-004	0.000000e+000	
3	5.400000e-004	0.000000e+000	
4	7.200000e-004	0.000000e+000	
5	9.000000e-004	0.000000e+000	
6	1.080000e-003	0.000000e+000	
7	1.260000e-003	0.000000e+000	
8	1.440000e-003	0.000000e+000	
9	1.620000e-003	0.000000e+000	
10	1.800000e-003	0.000000e+000	
11	1.980000e-003	0.000000e+000	
12	2.160000e-003	0.000000e+000	
13	2.340000e-003	0.000000e+000	
14	2.520000e-003	0.000000e+000	
15	2.700000e-003	0.000000e+000	
16	2.880000e-003	0.000000e+000	
17	3.060000e-003	0.000000e+000	
18	3.240000e-003	0.000000e+000	
19	3.420000e-003	0.000000e+000	
20	3.600000e-003	0.000000e+000	
21	3.780000e-003	0.000000e+000	
22	3.960000e-003	0.000000e+000	
23	4.140000e-003	0.000000e+000	
24	4.320000e-003	0.000000e+000	
25	4.500000e-003	0.000000e+000	
26	4.680000e-003	0.000000e+000	
27	4.860000e-003	0.000000e+000	
28	5.040000e-003	0.000000e+000	
29	5.220000e-003	0.000000e+000	
30	5.400000e-003	0.000000e+000	
31	5.580000e-003	0.000000e+000	
32	5.760000e-003	0.000000e+000	
33	5.940000e-003	0.000000e+000	
34	6.120000e-003	0.000000e+000	
35	6.300000e-003	0.000000e+000	
36	6.480000e-003	0.000000e+000	
37	6.660000e-003	0.000000e+000	
38	6.840000e-003	0.000000e+000	
39	7.020000e-003	0.000000e+000	
40	7.200000e-003	0.000000e+000	
41	7.380000e-003	0.000000e+000	
42	7.560000e-003	0.000000e+000	
43	7.740000e-003	0.000000e+000	
44	7.920000e-003	0.000000e+000	
45	8.100000e-003	0.000000e+000	
46	8.280000e-003	0.000000e+000	
47	8.460000e-003	0.000000e+000	
48	8.640000e-003	0.000000e+000	
49	8.820000e-003	0.000000e+000	
50	9.000000e-003	0.000000e+000	
51	9.180000e-003	0.000000e+000	
52	9.360000e-003	0.000000e+000	
53	9.540000e-003	0.000000e+000	
54	9.720000e-003	0.000000e+000	

Index   v-sweep         v_v2#branch     
--------------------------------------------------------------------------------
55	9.900000e-003	0.000000e+000	
56	1.008000e-002	0.000000e+000	
57	1.026000e-002	0.000000e+000	
58	1.044000e-002	0.000000e+000	
59	1.062000e-002	0.000000e+000	
60	1.080000e-002	0.000000e+000	
61	1.098000e-002	0.000000e+000	
62	1.116000e-002	0.000000e+000	
63	1.134000e-002	0.000000e+000	
64	1.152000e-002	0.000000e+000	
65	1.170000e-002	0.000000e+000	
66	1.188000e-002	0.000000e+000	
67	1.206000e-002	0.000000e+000	
68	1.224000e-002	0.000000e+000	
69	1.242000e-002	0.000000e+000	
70	1.260000e-002	0.000000e+000	
71	1.278000e-002	0.000000e+000	
72	1.296000e-002	0.000000e+000	
73	1.314000e-002	0.000000e+000	
74	1.332000e-002	0.000000e+000	
75	1.350000e-002	0.000000e+000	
76	1.368000e-002	0.000000e+000	
77	1.386000e-002	0.000000e+000	
78	1.404000e-002	0.000000e+000	
79	1.422000e-002	0.000000e+000	
80	1.440000e-002	0.000000e+000	
81	1.458000e-002	0.000000e+000	
82	1.476000e-002	0.000000e+000	
83	1.494000e-002	0.000000e+000	
84	1.512000e-002	0.000000e+000	
85	1.530000e-002	0.000000e+000	
86	1.548000e-002	0.000000e+000	
87	1.566000e-002	0.000000e+000	
88	1.584000e-002	0.000000e+000	
89	1.602000e-002	0.000000e+000	
90	1.620000e-002	0.000000e+000	
91	1.638000e-002	0.000000e+000	
92	1.656000e-002	0.000000e+000	
93	1.674000e-002	0.000000e+000	
94	1.692000e-002	0.000000e+000	
95	1.710000e-002	0.000000e+000	
96	1.728000e-002	0.000000e+000	
97	1.746000e-002	0.000000e+000	
98	1.764000e-002	0.000000e+000	
99	1.782000e-002	0.000000e+000	
100	1.800000e-002	0.000000e+000	
101	1.818000e-002	0.000000e+000	
102	1.836000e-002	0.000000e+000	
103	1.854000e-002	0.000000e+000	
104	1.872000e-002	0.000000e+000	
105	1.890000e-002	0.000000e+000	
106	1.908000e-002	0.000000e+000	
107	1.926000e-002	0.000000e+000	
108	1.944000e-002	0.000000e+000	
109	1.962000e-002	0.000000e+000	
110	1.980000e-002	0.000000e+000	
111	1.998000e-002	0.000000e+000	
112	2.016000e-002	0.000000e+000	

Index   v-sweep         v_v2#branch     
--------------------------------------------------------------------------------
113	2.034000e-002	0.000000e+000	
114	2.052000e-002	0.000000e+000	
115	2.070000e-002	0.000000e+000	
116	2.088000e-002	0.000000e+000	
117	2.106000e-002	0.000000e+000	
118	2.124000e-002	0.000000e+000	
119	2.142000e-002	0.000000e+000	
120	2.160000e-002	0.000000e+000	
121	2.178000e-002	0.000000e+000	
122	2.196000e-002	0.000000e+000	
123	2.214000e-002	0.000000e+000	
124	2.232000e-002	0.000000e+000	
125	2.250000e-002	0.000000e+000	
126	2.268000e-002	0.000000e+000	
127	2.286000e-002	0.000000e+000	
128	2.304000e-002	0.000000e+000	
129	2.322000e-002	0.000000e+000	
130	2.340000e-002	0.000000e+000	
131	2.358000e-002	0.000000e+000	
132	2.376000e-002	0.000000e+000	
133	2.394000e-002	0.000000e+000	
134	2.412000e-002	0.000000e+000	
135	2.430000e-002	0.000000e+000	
136	2.448000e-002	0.000000e+000	
137	2.466000e-002	0.000000e+000	
138	2.484000e-002	0.000000e+000	
139	2.502000e-002	0.000000e+000	
140	2.520000e-002	0.000000e+000	
141	2.538000e-002	0.000000e+000	
142	2.556000e-002	0.000000e+000	
143	2.574000e-002	0.000000e+000	
144	2.592000e-002	0.000000e+000	
145	2.610000e-002	0.000000e+000	
146	2.628000e-002	0.000000e+000	
147	2.646000e-002	0.000000e+000	
148	2.664000e-002	0.000000e+000	
149	2.682000e-002	0.000000e+000	
150	2.700000e-002	0.000000e+000	
151	2.718000e-002	0.000000e+000	
152	2.736000e-002	0.000000e+000	
153	2.754000e-002	0.000000e+000	
154	2.772000e-002	0.000000e+000	
155	2.790000e-002	0.000000e+000	
156	2.808000e-002	0.000000e+000	
157	2.826000e-002	0.000000e+000	
158	2.844000e-002	0.000000e+000	
159	2.862000e-002	0.000000e+000	
160	2.880000e-002	0.000000e+000	
161	2.898000e-002	0.000000e+000	
162	2.916000e-002	0.000000e+000	
163	2.934000e-002	0.000000e+000	
164	2.952000e-002	0.000000e+000	
165	2.970000e-002	0.000000e+000	
166	2.988000e-002	0.000000e+000	
167	3.006000e-002	0.000000e+000	
168	3.024000e-002	0.000000e+000	
169	3.042000e-002	0.000000e+000	
170	3.060000e-002	0.000000e+000	

Index   v-sweep         v_v2#branch     
--------------------------------------------------------------------------------
171	3.078000e-002	0.000000e+000	
172	3.096000e-002	0.000000e+000	
173	3.114000e-002	0.000000e+000	
174	3.132000e-002	0.000000e+000	
175	3.150000e-002	0.000000e+000	
176	3.168000e-002	0.000000e+000	
177	3.186000e-002	0.000000e+000	
178	3.204000e-002	0.000000e+000	
179	3.222000e-002	0.000000e+000	
180	3.240000e-002	0.000000e+000	
181	3.258000e-002	0.000000e+000	
182	3.276000e-002	0.000000e+000	
183	3.294000e-002	0.000000e+000	
184	3.312000e-002	0.000000e+000	
185	3.330000e-002	0.000000e+000	
186	3.348000e-002	0.000000e+000	
187	3.366000e-002	0.000000e+000	
188	3.384000e-002	0.000000e+000	
189	3.402000e-002	0.000000e+000	
190	3.420000e-002	0.000000e+000	
191	3.438000e-002	0.000000e+000	
192	3.456000e-002	0.000000e+000	
193	3.474000e-002	0.000000e+000	
194	3.492000e-002	0.000000e+000	
195	3.510000e-002	0.000000e+000	
196	3.528000e-002	0.000000e+000	
197	3.546000e-002	0.000000e+000	
198	3.564000e-002	0.000000e+000	
199	3.582000e-002	0.000000e+000	
200	3.600000e-002	0.000000e+000	
201	3.618000e-002	0.000000e+000	
202	3.636000e-002	0.000000e+000	
203	3.654000e-002	0.000000e+000	
204	3.672000e-002	0.000000e+000	
205	3.690000e-002	0.000000e+000	
206	3.708000e-002	0.000000e+000	
207	3.726000e-002	0.000000e+000	
208	3.744000e-002	0.000000e+000	
209	3.762000e-002	0.000000e+000	
210	3.780000e-002	0.000000e+000	
211	3.798000e-002	0.000000e+000	
212	3.816000e-002	0.000000e+000	
213	3.834000e-002	0.000000e+000	
214	3.852000e-002	0.000000e+000	
215	3.870000e-002	0.000000e+000	
216	3.888000e-002	0.000000e+000	
217	3.906000e-002	0.000000e+000	
218	3.924000e-002	0.000000e+000	
219	3.942000e-002	0.000000e+000	
220	3.960000e-002	0.000000e+000	
221	3.978000e-002	0.000000e+000	
222	3.996000e-002	0.000000e+000	
223	4.014000e-002	0.000000e+000	
224	4.032000e-002	0.000000e+000	
225	4.050000e-002	0.000000e+000	
226	4.068000e-002	0.000000e+000	
227	4.086000e-002	0.000000e+000	
228	4.104000e-002	0.000000e+000	

Index   v-sweep         v_v2#branch     
--------------------------------------------------------------------------------
229	4.122000e-002	0.000000e+000	
230	4.140000e-002	0.000000e+000	
231	4.158000e-002	0.000000e+000	
232	4.176000e-002	0.000000e+000	
233	4.194000e-002	0.000000e+000	
234	4.212000e-002	0.000000e+000	
235	4.230000e-002	0.000000e+000	
236	4.248000e-002	0.000000e+000	
237	4.266000e-002	0.000000e+000	
238	4.284000e-002	0.000000e+000	
239	4.302000e-002	0.000000e+000	
240	4.320000e-002	0.000000e+000	
241	4.338000e-002	0.000000e+000	
242	4.356000e-002	0.000000e+000	
243	4.374000e-002	0.000000e+000	
244	4.392000e-002	0.000000e+000	
245	4.410000e-002	0.000000e+000	
246	4.428000e-002	0.000000e+000	
247	4.446000e-002	0.000000e+000	
248	4.464000e-002	0.000000e+000	
249	4.482000e-002	0.000000e+000	
250	4.500000e-002	0.000000e+000	
251	4.518000e-002	0.000000e+000	
252	4.536000e-002	0.000000e+000	
253	4.554000e-002	0.000000e+000	
254	4.572000e-002	0.000000e+000	
255	4.590000e-002	0.000000e+000	
256	4.608000e-002	0.000000e+000	
257	4.626000e-002	0.000000e+000	
258	4.644000e-002	0.000000e+000	
259	4.662000e-002	0.000000e+000	
260	4.680000e-002	0.000000e+000	
261	4.698000e-002	0.000000e+000	
262	4.716000e-002	0.000000e+000	
263	4.734000e-002	0.000000e+000	
264	4.752000e-002	0.000000e+000	
265	4.770000e-002	0.000000e+000	
266	4.788000e-002	0.000000e+000	
267	4.806000e-002	0.000000e+000	
268	4.824000e-002	0.000000e+000	
269	4.842000e-002	0.000000e+000	
270	4.860000e-002	0.000000e+000	
271	4.878000e-002	0.000000e+000	
272	4.896000e-002	0.000000e+000	
273	4.914000e-002	0.000000e+000	
274	4.932000e-002	0.000000e+000	
275	4.950000e-002	0.000000e+000	
276	4.968000e-002	0.000000e+000	
277	4.986000e-002	0.000000e+000	
278	5.004000e-002	0.000000e+000	
279	5.022000e-002	0.000000e+000	
280	5.040000e-002	0.000000e+000	
281	5.058000e-002	0.000000e+000	
282	5.076000e-002	0.000000e+000	
283	5.094000e-002	0.000000e+000	
284	5.112000e-002	0.000000e+000	
285	5.130000e-002	0.000000e+000	
286	5.148000e-002	0.000000e+000	

Index   v-sweep         v_v2#branch     
--------------------------------------------------------------------------------
287	5.166000e-002	0.000000e+000	
288	5.184000e-002	0.000000e+000	
289	5.202000e-002	0.000000e+000	
290	5.220000e-002	0.000000e+000	
291	5.238000e-002	0.000000e+000	
292	5.256000e-002	0.000000e+000	
293	5.274000e-002	0.000000e+000	
294	5.292000e-002	0.000000e+000	
295	5.310000e-002	0.000000e+000	
296	5.328000e-002	0.000000e+000	
297	5.346000e-002	0.000000e+000	
298	5.364000e-002	0.000000e+000	
299	5.382000e-002	0.000000e+000	
300	5.400000e-002	0.000000e+000	
301	5.418000e-002	0.000000e+000	
302	5.436000e-002	0.000000e+000	
303	5.454000e-002	0.000000e+000	
304	5.472000e-002	0.000000e+000	
305	5.490000e-002	0.000000e+000	
306	5.508000e-002	0.000000e+000	
307	5.526000e-002	0.000000e+000	
308	5.544000e-002	0.000000e+000	
309	5.562000e-002	0.000000e+000	
310	5.580000e-002	0.000000e+000	
311	5.598000e-002	0.000000e+000	
312	5.616000e-002	0.000000e+000	
313	5.634000e-002	0.000000e+000	
314	5.652000e-002	0.000000e+000	
315	5.670000e-002	0.000000e+000	
316	5.688000e-002	0.000000e+000	
317	5.706000e-002	0.000000e+000	
318	5.724000e-002	0.000000e+000	
319	5.742000e-002	0.000000e+000	
320	5.760000e-002	0.000000e+000	
321	5.778000e-002	0.000000e+000	
322	5.796000e-002	0.000000e+000	
323	5.814000e-002	0.000000e+000	
324	5.832000e-002	0.000000e+000	
325	5.850000e-002	0.000000e+000	
326	5.868000e-002	0.000000e+000	
327	5.886000e-002	0.000000e+000	
328	5.904000e-002	0.000000e+000	
329	5.922000e-002	0.000000e+000	
330	5.940000e-002	0.000000e+000	
331	5.958000e-002	0.000000e+000	
332	5.976000e-002	0.000000e+000	
333	5.994000e-002	0.000000e+000	
334	6.012000e-002	0.000000e+000	
335	6.030000e-002	0.000000e+000	
336	6.048000e-002	0.000000e+000	
337	6.066000e-002	0.000000e+000	
338	6.084000e-002	0.000000e+000	
339	6.102000e-002	0.000000e+000	
340	6.120000e-002	0.000000e+000	
341	6.138000e-002	0.000000e+000	
342	6.156000e-002	0.000000e+000	
343	6.174000e-002	0.000000e+000	
344	6.192000e-002	0.000000e+000	

Index   v-sweep         v_v2#branch     
--------------------------------------------------------------------------------
345	6.210000e-002	0.000000e+000	
346	6.228000e-002	0.000000e+000	
347	6.246000e-002	0.000000e+000	
348	6.264000e-002	0.000000e+000	
349	6.282000e-002	0.000000e+000	
350	6.300000e-002	0.000000e+000	
351	6.318000e-002	0.000000e+000	
352	6.336000e-002	0.000000e+000	
353	6.354000e-002	0.000000e+000	
354	6.372000e-002	0.000000e+000	
355	6.390000e-002	0.000000e+000	
356	6.408000e-002	0.000000e+000	
357	6.426000e-002	0.000000e+000	
358	6.444000e-002	0.000000e+000	
359	6.462000e-002	0.000000e+000	
360	6.480000e-002	0.000000e+000	
361	6.498000e-002	0.000000e+000	
362	6.516000e-002	0.000000e+000	
363	6.534000e-002	0.000000e+000	
364	6.552000e-002	0.000000e+000	
365	6.570000e-002	0.000000e+000	
366	6.588000e-002	0.000000e+000	
367	6.606000e-002	0.000000e+000	
368	6.624000e-002	0.000000e+000	
369	6.642000e-002	0.000000e+000	
370	6.660000e-002	0.000000e+000	
371	6.678000e-002	0.000000e+000	
372	6.696000e-002	0.000000e+000	
373	6.714000e-002	0.000000e+000	
374	6.732000e-002	0.000000e+000	
375	6.750000e-002	0.000000e+000	
376	6.768000e-002	0.000000e+000	
377	6.786000e-002	0.000000e+000	
378	6.804000e-002	0.000000e+000	
379	6.822000e-002	0.000000e+000	
380	6.840000e-002	0.000000e+000	
381	6.858000e-002	0.000000e+000	
382	6.876000e-002	0.000000e+000	
383	6.894000e-002	0.000000e+000	
384	6.912000e-002	0.000000e+000	
385	6.930000e-002	0.000000e+000	
386	6.948000e-002	0.000000e+000	
387	6.966000e-002	0.000000e+000	
388	6.984000e-002	0.000000e+000	
389	7.002000e-002	0.000000e+000	
390	7.020000e-002	0.000000e+000	
391	7.038000e-002	0.000000e+000	
392	7.056000e-002	0.000000e+000	
393	7.074000e-002	0.000000e+000	
394	7.092000e-002	0.000000e+000	
395	7.110000e-002	0.000000e+000	
396	7.128000e-002	0.000000e+000	
397	7.146000e-002	0.000000e+000	
398	7.164000e-002	0.000000e+000	
399	7.182000e-002	0.000000e+000	
400	7.200000e-002	0.000000e+000	
401	7.218000e-002	0.000000e+000	
402	7.236000e-002	0.000000e+000	

Index   v-sweep         v_v2#branch     
--------------------------------------------------------------------------------
403	7.254000e-002	0.000000e+000	
404	7.272000e-002	0.000000e+000	
405	7.290000e-002	0.000000e+000	
406	7.308000e-002	0.000000e+000	
407	7.326000e-002	0.000000e+000	
408	7.344000e-002	0.000000e+000	
409	7.362000e-002	0.000000e+000	
410	7.380000e-002	0.000000e+000	
411	7.398000e-002	0.000000e+000	
412	7.416000e-002	0.000000e+000	
413	7.434000e-002	0.000000e+000	
414	7.452000e-002	0.000000e+000	
415	7.470000e-002	0.000000e+000	
416	7.488000e-002	0.000000e+000	
417	7.506000e-002	0.000000e+000	
418	7.524000e-002	0.000000e+000	
419	7.542000e-002	0.000000e+000	
420	7.560000e-002	0.000000e+000	
421	7.578000e-002	0.000000e+000	
422	7.596000e-002	0.000000e+000	
423	7.614000e-002	0.000000e+000	
424	7.632000e-002	0.000000e+000	
425	7.650000e-002	0.000000e+000	
426	7.668000e-002	0.000000e+000	
427	7.686000e-002	0.000000e+000	
428	7.704000e-002	0.000000e+000	
429	7.722000e-002	0.000000e+000	
430	7.740000e-002	0.000000e+000	
431	7.758000e-002	0.000000e+000	
432	7.776000e-002	0.000000e+000	
433	7.794000e-002	0.000000e+000	
434	7.812000e-002	0.000000e+000	
435	7.830000e-002	0.000000e+000	
436	7.848000e-002	0.000000e+000	
437	7.866000e-002	0.000000e+000	
438	7.884000e-002	0.000000e+000	
439	7.902000e-002	0.000000e+000	
440	7.920000e-002	0.000000e+000	
441	7.938000e-002	0.000000e+000	
442	7.956000e-002	0.000000e+000	
443	7.974000e-002	0.000000e+000	
444	7.992000e-002	0.000000e+000	
445	8.010000e-002	0.000000e+000	
446	8.028000e-002	0.000000e+000	
447	8.046000e-002	0.000000e+000	
448	8.064000e-002	0.000000e+000	
449	8.082000e-002	0.000000e+000	
450	8.100000e-002	0.000000e+000	
451	8.118000e-002	0.000000e+000	
452	8.136000e-002	0.000000e+000	
453	8.154000e-002	0.000000e+000	
454	8.172000e-002	0.000000e+000	
455	8.190000e-002	0.000000e+000	
456	8.208000e-002	0.000000e+000	
457	8.226000e-002	0.000000e+000	
458	8.244000e-002	0.000000e+000	
459	8.262000e-002	0.000000e+000	
460	8.280000e-002	0.000000e+000	

Index   v-sweep         v_v2#branch     
--------------------------------------------------------------------------------
461	8.298000e-002	0.000000e+000	
462	8.316000e-002	0.000000e+000	
463	8.334000e-002	0.000000e+000	
464	8.352000e-002	0.000000e+000	
465	8.370000e-002	0.000000e+000	
466	8.388000e-002	0.000000e+000	
467	8.406000e-002	0.000000e+000	
468	8.424000e-002	0.000000e+000	
469	8.442000e-002	0.000000e+000	
470	8.460000e-002	0.000000e+000	
471	8.478000e-002	0.000000e+000	
472	8.496000e-002	0.000000e+000	
473	8.514000e-002	0.000000e+000	
474	8.532000e-002	0.000000e+000	
475	8.550000e-002	0.000000e+000	
476	8.568000e-002	0.000000e+000	
477	8.586000e-002	0.000000e+000	
478	8.604000e-002	0.000000e+000	
479	8.622000e-002	0.000000e+000	
480	8.640000e-002	0.000000e+000	
481	8.658000e-002	0.000000e+000	
482	8.676000e-002	0.000000e+000	
483	8.694000e-002	0.000000e+000	
484	8.712000e-002	0.000000e+000	
485	8.730000e-002	0.000000e+000	
486	8.748000e-002	0.000000e+000	
487	8.766000e-002	0.000000e+000	
488	8.784000e-002	0.000000e+000	
489	8.802000e-002	0.000000e+000	
490	8.820000e-002	0.000000e+000	
491	8.838000e-002	0.000000e+000	
492	8.856000e-002	0.000000e+000	
493	8.874000e-002	0.000000e+000	
494	8.892000e-002	0.000000e+000	
495	8.910000e-002	0.000000e+000	
496	8.928000e-002	0.000000e+000	
497	8.946000e-002	0.000000e+000	
498	8.964000e-002	0.000000e+000	
499	8.982000e-002	0.000000e+000	
500	9.000000e-002	0.000000e+000	


Total elapsed time: 0.027 seconds.

Total DRAM available = 16279.230469 MB.
DRAM currently available = 6431.527344 MB.
Total ngspice program size = 1.164063 MB.

Warning: can't parse 'n_7': ignored
Warning: can't parse 'v_v3#branch': ignored
Warning: can't parse 'v_v1#branch': ignored
Warning: can't parse 'v_v2#branch': ignored

